<?xml version="1.0" encoding="UTF-8"?>

<!-- generated on 2024-06-05 14:48:00 by Eclipse SUMO duarouter Version 1.20.0
<configuration xmlns:xsi="http://www.w3.org/2001/XMLSchema-instance" xsi:noNamespaceSchemaLocation="http://sumo.dlr.de/xsd/duarouterConfiguration.xsd">

    <input>
        <net-file value="cruzamento1.net.xml"/>
        <route-files value="trips.trips.xml"/>
    </input>

    <output>
        <output-file value="cruzamento1.rou.xml"/>
    </output>

    <time>
        <begin value="0"/>
        <end value="1000"/>
    </time>

    <report>
        <no-warnings value="true"/>
        <ignore-errors value="true"/>
        <no-step-log value="true"/>
    </report>

</configuration>
-->

<routes xmlns:xsi="http://www.w3.org/2001/XMLSchema-instance" xsi:noNamespaceSchemaLocation="http://sumo.dlr.de/xsd/routes_file.xsd">
    <vehicle id="1" depart="1.00">
        <route edges="-gneE33 -gneE32 -gneE31"/>
    </vehicle>
    <vehicle id="2" depart="2.00">
        <route edges="gneE31"/>
    </vehicle>
    <vehicle id="5" depart="5.00">
        <route edges="-gneE31 -gneE23 -gneE7 -gneE6 gneE5 gneE12 gneE13"/>
    </vehicle>
    <vehicle id="7" depart="7.00">
        <route edges="gneE2 gneE6 gneE7 gneE23"/>
    </vehicle>
    <vehicle id="8" depart="8.00">
        <route edges="-gneE31 -gneE23 -gneE7 -gneE6 gneE5 gneE12 gneE13 gneE25"/>
    </vehicle>
    <vehicle id="10" depart="10.00">
        <route edges="gneE32"/>
    </vehicle>
    <vehicle id="13" depart="13.00">
        <route edges="-gneE23 -gneE7 -gneE6 -gneE2"/>
    </vehicle>
    <vehicle id="14" depart="14.00">
        <route edges="gneE4 gneE5 gneE12 gneE13 gneE25"/>
    </vehicle>
    <vehicle id="15" depart="15.00">
        <route edges="gneE32"/>
    </vehicle>
    <vehicle id="17" depart="17.00">
        <route edges="-gneE36 -gneE34 gneE4 gneE6 gneE7 gneE23"/>
    </vehicle>
    <vehicle id="19" depart="19.00">
        <route edges="gneE4 gneE5 gneE12 gneE13 gneE25"/>
    </vehicle>
    <vehicle id="27" depart="27.00">
        <route edges="gneE2 gneE5 gneE12 gneE13 gneE25"/>
    </vehicle>
    <vehicle id="28" depart="28.00">
        <route edges="-gneE27 -gneE25 -gneE13 -gneE12 -gneE5 gneE6 gneE7 gneE23 gneE31 gneE32"/>
    </vehicle>
    <vehicle id="29" depart="29.00">
        <route edges="-gneE27 -gneE25 -gneE13 -gneE12 -gneE5"/>
    </vehicle>
    <vehicle id="32" depart="32.00">
        <route edges="gneE34"/>
    </vehicle>
    <vehicle id="39" depart="39.00">
        <route edges="-gneE32"/>
    </vehicle>
    <vehicle id="45" depart="45.00">
        <route edges="-gneE23 -gneE7 -gneE6 gneE5 gneE12 gneE13 gneE25 gneE27"/>
    </vehicle>
    <vehicle id="47" depart="47.00">
        <route edges="-gneE13 -gneE12 -gneE5"/>
    </vehicle>
    <vehicle id="50" depart="50.00">
        <route edges="-gneE12 -gneE5 gneE6 gneE7 gneE23 gneE31 gneE32"/>
    </vehicle>
    <vehicle id="52" depart="52.00">
        <route edges="-gneE32 -gneE31 -gneE23 -gneE7 -gneE6 gneE5 gneE12 gneE13 gneE25 gneE27"/>
    </vehicle>
    <vehicle id="53" depart="53.00">
        <route edges="-gneE23 -gneE7"/>
    </vehicle>
    <vehicle id="54" depart="54.00">
        <route edges="-gneE5 gneE6"/>
    </vehicle>
    <vehicle id="58" depart="58.00">
        <route edges="-gneE33 -gneE32 -gneE31 -gneE23 -gneE7 -gneE6 gneE5 gneE12 gneE13 gneE25 gneE27"/>
    </vehicle>
    <vehicle id="62" depart="62.00">
        <route edges="-gneE12 -gneE5 -gneE4"/>
    </vehicle>
    <vehicle id="63" depart="63.00">
        <route edges="-gneE12 -gneE5 gneE6"/>
    </vehicle>
    <vehicle id="66" depart="66.00">
        <route edges="gneE4 gneE6"/>
    </vehicle>
    <vehicle id="67" depart="67.00">
        <route edges="-gneE23 -gneE7 -gneE6 gneE5 gneE12"/>
    </vehicle>
    <vehicle id="68" depart="68.00">
        <route edges="-gneE13 -gneE12 -gneE5 gneE6 gneE7 gneE23 gneE31 gneE32 gneE33"/>
    </vehicle>
    <vehicle id="74" depart="74.00">
        <route edges="-gneE31 -gneE23 -gneE7 -gneE6 -gneE4"/>
    </vehicle>
    <vehicle id="78" depart="78.00">
        <route edges="-gneE34 gneE4 gneE5 gneE12 gneE13 gneE25"/>
    </vehicle>
    <vehicle id="79" depart="79.00">
        <route edges="-gneE31"/>
    </vehicle>
    <vehicle id="81" depart="81.00">
        <route edges="-gneE31 -gneE23 -gneE7 -gneE6 gneE5"/>
    </vehicle>
    <vehicle id="84" depart="84.00">
        <route edges="-gneE31 -gneE23"/>
    </vehicle>
    <vehicle id="85" depart="85.00">
        <route edges="gneE6 gneE7 gneE23"/>
    </vehicle>
    <vehicle id="86" depart="86.00">
        <route edges="-gneE6 -gneE4 gneE34"/>
    </vehicle>
    <vehicle id="88" depart="88.00">
        <route edges="-gneE23 -gneE7"/>
    </vehicle>
    <vehicle id="92" depart="92.00">
        <route edges="-gneE4"/>
    </vehicle>
    <vehicle id="104" depart="104.00">
        <route edges="-gneE36 -gneE34 gneE4 gneE6 gneE7"/>
    </vehicle>
    <vehicle id="105" depart="105.00">
        <route edges="-gneE32 -gneE31 -gneE23 -gneE7 -gneE6 -gneE4 gneE34"/>
    </vehicle>
    <vehicle id="107" depart="107.00">
        <route edges="gneE6 gneE7"/>
    </vehicle>
    <vehicle id="114" depart="114.00">
        <route edges="-gneE27 -gneE25 -gneE13 -gneE12 -gneE5 gneE6"/>
    </vehicle>
    <vehicle id="117" depart="117.00">
        <route edges="-gneE32 -gneE31 -gneE23"/>
    </vehicle>
    <vehicle id="119" depart="119.00">
        <route edges="gneE13 gneE25 gneE27"/>
    </vehicle>
    <vehicle id="123" depart="123.00">
        <route edges="-gneE32 -gneE31 -gneE23 -gneE7 -gneE6"/>
    </vehicle>
    <vehicle id="125" depart="125.00">
        <route edges="-gneE34 gneE4 gneE6 gneE7 gneE23 gneE31 gneE32 gneE33"/>
    </vehicle>
    <vehicle id="127" depart="127.00">
        <route edges="gneE7"/>
    </vehicle>
    <vehicle id="130" depart="130.00">
        <route edges="gneE4"/>
    </vehicle>
    <vehicle id="139" depart="139.00">
        <route edges="-gneE33 -gneE32 -gneE31 -gneE23 -gneE7 -gneE6 gneE5 gneE12 gneE13 gneE25"/>
    </vehicle>
    <vehicle id="142" depart="142.00">
        <route edges="-gneE6 gneE5"/>
    </vehicle>
    <vehicle id="145" depart="145.00">
        <route edges="-gneE12 -gneE5 -gneE4 gneE34"/>
    </vehicle>
    <vehicle id="153" depart="153.00">
        <route edges="-gneE34 gneE4 gneE5"/>
    </vehicle>
    <vehicle id="156" depart="156.00">
        <route edges="-gneE32 -gneE31 -gneE23 -gneE7 -gneE6 -gneE2"/>
    </vehicle>
    <vehicle id="159" depart="159.00">
        <route edges="-gneE27 -gneE25 -gneE13 -gneE12 -gneE5 gneE6"/>
    </vehicle>
    <vehicle id="160" depart="160.00">
        <route edges="gneE4 gneE6 gneE7"/>
    </vehicle>
    <vehicle id="162" depart="162.00">
        <route edges="-gneE12 -gneE5 gneE6 gneE7 gneE23 gneE31 gneE32 gneE33"/>
    </vehicle>
    <vehicle id="163" depart="163.00">
        <route edges="-gneE34 gneE4 gneE6"/>
    </vehicle>
    <vehicle id="167" depart="167.00">
        <route edges="gneE4"/>
    </vehicle>
    <vehicle id="168" depart="168.00">
        <route edges="-gneE31 -gneE23 -gneE7 -gneE6 -gneE4 gneE34 gneE36"/>
    </vehicle>
    <vehicle id="172" depart="172.00">
        <route edges="-gneE34 gneE4"/>
    </vehicle>
    <vehicle id="179" depart="179.00">
        <route edges="-gneE23 -gneE7"/>
    </vehicle>
    <vehicle id="181" depart="181.00">
        <route edges="gneE13"/>
    </vehicle>
    <vehicle id="184" depart="184.00">
        <route edges="-gneE12 -gneE5 gneE6"/>
    </vehicle>
    <vehicle id="186" depart="186.00">
        <route edges="gneE31"/>
    </vehicle>
    <vehicle id="189" depart="189.00">
        <route edges="-gneE34 gneE4"/>
    </vehicle>
    <vehicle id="194" depart="194.00">
        <route edges="gneE6 gneE7 gneE23 gneE31"/>
    </vehicle>
    <vehicle id="195" depart="195.00">
        <route edges="gneE5 gneE12 gneE13 gneE25 gneE27"/>
    </vehicle>
    <vehicle id="201" depart="201.00">
        <route edges="-gneE6 gneE5"/>
    </vehicle>
    <vehicle id="203" depart="203.00">
        <route edges="-gneE23 -gneE7 -gneE6 gneE5 gneE12 gneE13"/>
    </vehicle>
    <vehicle id="204" depart="204.00">
        <route edges="gneE2 -gneE4"/>
    </vehicle>
    <vehicle id="208" depart="208.00">
        <route edges="-gneE32 -gneE31 -gneE23 -gneE7 -gneE6 gneE5 gneE12"/>
    </vehicle>
    <vehicle id="215" depart="215.00">
        <route edges="-gneE23 -gneE7"/>
    </vehicle>
    <vehicle id="216" depart="216.00">
        <route edges="-gneE27 -gneE25 -gneE13 -gneE12 -gneE5 gneE6"/>
    </vehicle>
    <vehicle id="219" depart="219.00">
        <route edges="-gneE5 -gneE4 gneE34"/>
    </vehicle>
    <vehicle id="222" depart="222.00">
        <route edges="gneE5 gneE12 gneE13 gneE25"/>
    </vehicle>
    <vehicle id="227" depart="227.00">
        <route edges="-gneE32 -gneE31 -gneE23 -gneE7 -gneE6 gneE5 gneE12 gneE13 gneE25 gneE27"/>
    </vehicle>
    <vehicle id="231" depart="231.00">
        <route edges="-gneE33 -gneE32 -gneE31 -gneE23 -gneE7 -gneE6 -gneE4"/>
    </vehicle>
    <vehicle id="239" depart="239.00">
        <route edges="gneE4 gneE6 gneE7 gneE23 gneE31 gneE32 gneE33"/>
    </vehicle>
    <vehicle id="241" depart="241.00">
        <route edges="-gneE36 -gneE34 gneE4 gneE6 gneE7 gneE23 gneE31 gneE32 gneE33"/>
    </vehicle>
    <vehicle id="242" depart="242.00">
        <route edges="gneE4 gneE6"/>
    </vehicle>
    <vehicle id="244" depart="244.00">
        <route edges="gneE12 gneE13 gneE25"/>
    </vehicle>
    <vehicle id="245" depart="245.00">
        <route edges="-gneE31"/>
    </vehicle>
    <vehicle id="247" depart="247.00">
        <route edges="-gneE34 gneE4 gneE6 gneE7 gneE23 gneE31"/>
    </vehicle>
    <vehicle id="254" depart="254.00">
        <route edges="-gneE13 -gneE12 -gneE5"/>
    </vehicle>
    <vehicle id="255" depart="255.00">
        <route edges="-gneE31 -gneE23 -gneE7 -gneE6 -gneE4"/>
    </vehicle>
    <vehicle id="258" depart="258.00">
        <route edges="-gneE32 -gneE31 -gneE23 -gneE7 -gneE6 -gneE2"/>
    </vehicle>
    <vehicle id="259" depart="259.00">
        <route edges="-gneE12 -gneE5 gneE6 gneE7 gneE23"/>
    </vehicle>
    <vehicle id="261" depart="261.00">
        <route edges="gneE2 -gneE4 gneE34"/>
    </vehicle>
    <vehicle id="262" depart="262.00">
        <route edges="gneE2 gneE6 gneE7 gneE23 gneE31 gneE32 gneE33"/>
    </vehicle>
    <vehicle id="265" depart="265.00">
        <route edges="-gneE25 -gneE13 -gneE12 -gneE5 gneE6 gneE7 gneE23 gneE31"/>
    </vehicle>
    <vehicle id="272" depart="272.00">
        <route edges="-gneE34 gneE4 gneE6 gneE7 gneE23 gneE31"/>
    </vehicle>
    <vehicle id="276" depart="276.00">
        <route edges="-gneE23 -gneE7 -gneE6 -gneE4 gneE34"/>
    </vehicle>
    <vehicle id="277" depart="277.00">
        <route edges="gneE4 gneE5 gneE12 gneE13 gneE25"/>
    </vehicle>
    <vehicle id="278" depart="278.00">
        <route edges="-gneE25 -gneE13 -gneE12 -gneE5 gneE6 gneE7"/>
    </vehicle>
    <vehicle id="280" depart="280.00">
        <route edges="-gneE5"/>
    </vehicle>
    <vehicle id="281" depart="281.00">
        <route edges="-gneE7 -gneE6 -gneE4"/>
    </vehicle>
    <vehicle id="284" depart="284.00">
        <route edges="gneE2 -gneE4 gneE34 gneE36"/>
    </vehicle>
    <vehicle id="287" depart="287.00">
        <route edges="-gneE33 -gneE32 -gneE31 -gneE23 -gneE7 -gneE6 -gneE4 gneE34 gneE36"/>
    </vehicle>
    <vehicle id="288" depart="288.00">
        <route edges="-gneE7 -gneE6 gneE5 gneE12"/>
    </vehicle>
    <vehicle id="289" depart="289.00">
        <route edges="-gneE5 gneE6 gneE7 gneE23 gneE31 gneE32 gneE33"/>
    </vehicle>
    <vehicle id="293" depart="293.00">
        <route edges="-gneE6 gneE5 gneE12 gneE13 gneE25"/>
    </vehicle>
    <vehicle id="296" depart="296.00">
        <route edges="-gneE31 -gneE23 -gneE7 -gneE6 -gneE4 gneE34"/>
    </vehicle>
    <vehicle id="297" depart="297.00">
        <route edges="-gneE34 gneE4"/>
    </vehicle>
    <vehicle id="299" depart="299.00">
        <route edges="-gneE12 -gneE5 gneE6"/>
    </vehicle>
    <vehicle id="303" depart="303.00">
        <route edges="-gneE6 -gneE4 gneE34"/>
    </vehicle>
    <vehicle id="307" depart="307.00">
        <route edges="-gneE7"/>
    </vehicle>
    <vehicle id="310" depart="310.00">
        <route edges="-gneE32 -gneE31 -gneE23"/>
    </vehicle>
    <vehicle id="311" depart="311.00">
        <route edges="-gneE31 -gneE23"/>
    </vehicle>
    <vehicle id="316" depart="316.00">
        <route edges="-gneE33 -gneE32 -gneE31 -gneE23 -gneE7 -gneE6 -gneE2"/>
    </vehicle>
    <vehicle id="317" depart="317.00">
        <route edges="-gneE31"/>
    </vehicle>
    <vehicle id="318" depart="318.00">
        <route edges="-gneE27 -gneE25 -gneE13 -gneE12"/>
    </vehicle>
    <vehicle id="320" depart="320.00">
        <route edges="gneE7 gneE23"/>
    </vehicle>
    <vehicle id="322" depart="322.00">
        <route edges="gneE4 gneE5 gneE12"/>
    </vehicle>
    <vehicle id="323" depart="323.00">
        <route edges="gneE4 gneE6 gneE7 gneE23"/>
    </vehicle>
    <vehicle id="325" depart="325.00">
        <route edges="-gneE27 -gneE25 -gneE13"/>
    </vehicle>
    <vehicle id="334" depart="334.00">
        <route edges="-gneE7"/>
    </vehicle>
    <vehicle id="337" depart="337.00">
        <route edges="gneE2 gneE5 gneE12 gneE13 gneE25"/>
    </vehicle>
    <vehicle id="339" depart="339.00">
        <route edges="-gneE31"/>
    </vehicle>
    <vehicle id="341" depart="341.00">
        <route edges="-gneE27 -gneE25 -gneE13"/>
    </vehicle>
    <vehicle id="349" depart="349.00">
        <route edges="-gneE5 gneE6 gneE7 gneE23"/>
    </vehicle>
    <vehicle id="350" depart="350.00">
        <route edges="gneE2 gneE5"/>
    </vehicle>
    <vehicle id="354" depart="354.00">
        <route edges="-gneE33 -gneE32 -gneE31 -gneE23"/>
    </vehicle>
    <vehicle id="355" depart="355.00">
        <route edges="gneE23 gneE31 gneE32"/>
    </vehicle>
    <vehicle id="357" depart="357.00">
        <route edges="-gneE6 -gneE2"/>
    </vehicle>
    <vehicle id="362" depart="362.00">
        <route edges="gneE6 gneE7"/>
    </vehicle>
    <vehicle id="364" depart="364.00">
        <route edges="-gneE13 -gneE12 -gneE5 gneE6 gneE7 gneE23 gneE31 gneE32 gneE33"/>
    </vehicle>
    <vehicle id="365" depart="365.00">
        <route edges="-gneE6 gneE5 gneE12 gneE13 gneE25 gneE27"/>
    </vehicle>
    <vehicle id="367" depart="367.00">
        <route edges="gneE13 gneE25 gneE27"/>
    </vehicle>
    <vehicle id="368" depart="368.00">
        <route edges="-gneE6 -gneE2"/>
    </vehicle>
    <vehicle id="371" depart="371.00">
        <route edges="-gneE34 gneE4 gneE6 gneE7 gneE23 gneE31 gneE32"/>
    </vehicle>
    <vehicle id="374" depart="374.00">
        <route edges="-gneE5 -gneE4"/>
    </vehicle>
    <vehicle id="375" depart="375.00">
        <route edges="-gneE34 gneE4 gneE6 gneE7"/>
    </vehicle>
    <vehicle id="377" depart="377.00">
        <route edges="gneE7 gneE23 gneE31"/>
    </vehicle>
    <vehicle id="379" depart="379.00">
        <route edges="-gneE27 -gneE25 -gneE13 -gneE12 -gneE5"/>
    </vehicle>
    <vehicle id="383" depart="383.00">
        <route edges="-gneE5 gneE6 gneE7 gneE23 gneE31 gneE32"/>
    </vehicle>
    <vehicle id="384" depart="384.00">
        <route edges="-gneE25 -gneE13 -gneE12 -gneE5 gneE6 gneE7"/>
    </vehicle>
    <vehicle id="386" depart="386.00">
        <route edges="-gneE27 -gneE25 -gneE13 -gneE12 -gneE5 gneE6 gneE7 gneE23"/>
    </vehicle>
    <vehicle id="392" depart="392.00">
        <route edges="-gneE33 -gneE32 -gneE31 -gneE23 -gneE7 -gneE6 -gneE4 gneE34 gneE36"/>
    </vehicle>
    <vehicle id="395" depart="395.00">
        <route edges="gneE5 gneE12 gneE13"/>
    </vehicle>
    <vehicle id="396" depart="396.00">
        <route edges="gneE4"/>
    </vehicle>
    <vehicle id="397" depart="397.00">
        <route edges="-gneE33 -gneE32 -gneE31 -gneE23 -gneE7 -gneE6 -gneE4 gneE34"/>
    </vehicle>
    <vehicle id="399" depart="399.00">
        <route edges="-gneE7 -gneE6 -gneE4 gneE34 gneE36"/>
    </vehicle>
    <vehicle id="405" depart="405.00">
        <route edges="-gneE5 -gneE4"/>
    </vehicle>
    <vehicle id="406" depart="406.00">
        <route edges="-gneE27 -gneE25 -gneE13 -gneE12 -gneE5 gneE6 gneE7 gneE23 gneE31 gneE32"/>
    </vehicle>
    <vehicle id="409" depart="409.00">
        <route edges="gneE31 gneE32"/>
    </vehicle>
    <vehicle id="416" depart="416.00">
        <route edges="-gneE7"/>
    </vehicle>
    <vehicle id="420" depart="420.00">
        <route edges="-gneE34 gneE4 gneE6 gneE7 gneE23 gneE31 gneE32"/>
    </vehicle>
    <vehicle id="422" depart="422.00">
        <route edges="gneE4"/>
    </vehicle>
    <vehicle id="429" depart="429.00">
        <route edges="-gneE23 -gneE7 -gneE6 gneE5 gneE12 gneE13 gneE25 gneE27"/>
    </vehicle>
    <vehicle id="432" depart="432.00">
        <route edges="-gneE13 -gneE12 -gneE5 -gneE4 gneE34"/>
    </vehicle>
    <vehicle id="436" depart="436.00">
        <route edges="-gneE27 -gneE25 -gneE13 -gneE12 -gneE5 -gneE2"/>
    </vehicle>
    <vehicle id="437" depart="437.00">
        <route edges="gneE4 gneE5 gneE12 gneE13 gneE25 gneE27"/>
    </vehicle>
    <vehicle id="438" depart="438.00">
        <route edges="-gneE32 -gneE31 -gneE23 -gneE7 -gneE6 gneE5"/>
    </vehicle>
    <vehicle id="440" depart="440.00">
        <route edges="-gneE32"/>
    </vehicle>
    <vehicle id="441" depart="441.00">
        <route edges="-gneE12 -gneE5 -gneE4 gneE34"/>
    </vehicle>
    <vehicle id="444" depart="444.00">
        <route edges="-gneE34 gneE4 gneE5 gneE12 gneE13 gneE25"/>
    </vehicle>
    <vehicle id="446" depart="446.00">
        <route edges="-gneE32 -gneE31 -gneE23 -gneE7 -gneE6 -gneE4 gneE34 gneE36"/>
    </vehicle>
    <vehicle id="447" depart="447.00">
        <route edges="-gneE31 -gneE23 -gneE7 -gneE6"/>
    </vehicle>
    <vehicle id="451" depart="451.00">
        <route edges="gneE7 gneE23 gneE31"/>
    </vehicle>
    <vehicle id="453" depart="453.00">
        <route edges="gneE23 gneE31 gneE32 gneE33"/>
    </vehicle>
    <vehicle id="455" depart="455.00">
        <route edges="-gneE6 gneE5"/>
    </vehicle>
    <vehicle id="456" depart="456.00">
        <route edges="-gneE33 -gneE32 -gneE31 -gneE23 -gneE7 -gneE6 -gneE4 gneE34"/>
    </vehicle>
    <vehicle id="458" depart="458.00">
        <route edges="gneE2 gneE5 gneE12 gneE13 gneE25 gneE27"/>
    </vehicle>
    <vehicle id="459" depart="459.00">
        <route edges="gneE23 gneE31 gneE32"/>
    </vehicle>
    <vehicle id="461" depart="461.00">
        <route edges="gneE2 gneE5"/>
    </vehicle>
    <vehicle id="462" depart="462.00">
        <route edges="gneE2 -gneE4"/>
    </vehicle>
    <vehicle id="468" depart="468.00">
        <route edges="-gneE7 -gneE6 gneE5"/>
    </vehicle>
    <vehicle id="471" depart="471.00">
        <route edges="gneE32 gneE33"/>
    </vehicle>
    <vehicle id="472" depart="472.00">
        <route edges="-gneE34 gneE4 -gneE2"/>
    </vehicle>
    <vehicle id="479" depart="479.00">
        <route edges="-gneE5 gneE6 gneE7 gneE23 gneE31"/>
    </vehicle>
    <vehicle id="487" depart="487.00">
        <route edges="-gneE33 -gneE32 -gneE31 -gneE23 -gneE7 -gneE6"/>
    </vehicle>
    <vehicle id="488" depart="488.00">
        <route edges="-gneE25 -gneE13 -gneE12 -gneE5 gneE6"/>
    </vehicle>
    <vehicle id="489" depart="489.00">
        <route edges="-gneE33 -gneE32 -gneE31 -gneE23 -gneE7 -gneE6 gneE5 gneE12"/>
    </vehicle>
    <vehicle id="490" depart="490.00">
        <route edges="-gneE23 -gneE7 -gneE6 gneE5"/>
    </vehicle>
    <vehicle id="492" depart="492.00">
        <route edges="gneE23 gneE31 gneE32 gneE33"/>
    </vehicle>
    <vehicle id="496" depart="496.00">
        <route edges="-gneE6"/>
    </vehicle>
    <vehicle id="508" depart="508.00">
        <route edges="-gneE25 -gneE13 -gneE12 -gneE5 gneE6 gneE7 gneE23"/>
    </vehicle>
    <vehicle id="509" depart="509.00">
        <route edges="-gneE13 -gneE12 -gneE5 gneE6 gneE7 gneE23 gneE31 gneE32 gneE33"/>
    </vehicle>
    <vehicle id="510" depart="510.00">
        <route edges="-gneE31"/>
    </vehicle>
    <vehicle id="517" depart="517.00">
        <route edges="-gneE12 -gneE5 -gneE4 gneE34"/>
    </vehicle>
    <vehicle id="518" depart="518.00">
        <route edges="-gneE32 -gneE31 -gneE23 -gneE7 -gneE6 -gneE4"/>
    </vehicle>
    <vehicle id="519" depart="519.00">
        <route edges="-gneE27 -gneE25 -gneE13"/>
    </vehicle>
    <vehicle id="523" depart="523.00">
        <route edges="-gneE23 -gneE7 -gneE6 gneE5 gneE12 gneE13"/>
    </vehicle>
    <vehicle id="526" depart="526.00">
        <route edges="-gneE7"/>
    </vehicle>
    <vehicle id="528" depart="528.00">
        <route edges="-gneE6"/>
    </vehicle>
    <vehicle id="531" depart="531.00">
        <route edges="-gneE23 -gneE7 -gneE6 gneE5 gneE12 gneE13 gneE25"/>
    </vehicle>
    <vehicle id="533" depart="533.00">
        <route edges="gneE2 gneE6 gneE7 gneE23"/>
    </vehicle>
    <vehicle id="534" depart="534.00">
        <route edges="-gneE34 gneE4 gneE6 gneE7"/>
    </vehicle>
    <vehicle id="535" depart="535.00">
        <route edges="-gneE7"/>
    </vehicle>
    <vehicle id="538" depart="538.00">
        <route edges="gneE2 gneE6 gneE7 gneE23 gneE31 gneE32 gneE33"/>
    </vehicle>
    <vehicle id="543" depart="543.00">
        <route edges="-gneE5 gneE6 gneE7 gneE23 gneE31"/>
    </vehicle>
    <vehicle id="551" depart="551.00">
        <route edges="-gneE36 -gneE34 gneE4 gneE6 gneE7 gneE23 gneE31"/>
    </vehicle>
    <vehicle id="557" depart="557.00">
        <route edges="-gneE23 -gneE7 -gneE6 -gneE4 gneE34 gneE36"/>
    </vehicle>
    <vehicle id="558" depart="558.00">
        <route edges="-gneE36 -gneE34 gneE4 gneE6 gneE7 gneE23 gneE31 gneE32 gneE33"/>
    </vehicle>
    <vehicle id="567" depart="567.00">
        <route edges="gneE4 gneE6 gneE7 gneE23"/>
    </vehicle>
    <vehicle id="571" depart="571.00">
        <route edges="-gneE4"/>
    </vehicle>
    <vehicle id="572" depart="572.00">
        <route edges="-gneE36 -gneE34 gneE4 gneE6 gneE7 gneE23 gneE31 gneE32"/>
    </vehicle>
    <vehicle id="585" depart="585.00">
        <route edges="-gneE31 -gneE23"/>
    </vehicle>
    <vehicle id="586" depart="586.00">
        <route edges="-gneE32 -gneE31 -gneE23 -gneE7 -gneE6 -gneE4"/>
    </vehicle>
    <vehicle id="587" depart="587.00">
        <route edges="-gneE12 -gneE5 gneE6 gneE7 gneE23 gneE31 gneE32 gneE33"/>
    </vehicle>
    <vehicle id="588" depart="588.00">
        <route edges="-gneE27 -gneE25 -gneE13 -gneE12 -gneE5"/>
    </vehicle>
    <vehicle id="590" depart="590.00">
        <route edges="gneE34"/>
    </vehicle>
    <vehicle id="592" depart="592.00">
        <route edges="-gneE13 -gneE12"/>
    </vehicle>
    <vehicle id="598" depart="598.00">
        <route edges="gneE2 -gneE4 gneE34 gneE36"/>
    </vehicle>
    <vehicle id="601" depart="601.00">
        <route edges="gneE13"/>
    </vehicle>
    <vehicle id="602" depart="602.00">
        <route edges="-gneE4"/>
    </vehicle>
    <vehicle id="605" depart="605.00">
        <route edges="-gneE23 -gneE7 -gneE6 gneE5 gneE12 gneE13"/>
    </vehicle>
    <vehicle id="613" depart="613.00">
        <route edges="gneE31 gneE32 gneE33"/>
    </vehicle>
    <vehicle id="614" depart="614.00">
        <route edges="-gneE5 gneE6"/>
    </vehicle>
    <vehicle id="615" depart="615.00">
        <route edges="gneE12 gneE13 gneE25 gneE27"/>
    </vehicle>
    <vehicle id="622" depart="622.00">
        <route edges="-gneE13 -gneE12 -gneE5 -gneE4 gneE34 gneE36"/>
    </vehicle>
    <vehicle id="624" depart="624.00">
        <route edges="gneE4 gneE5 gneE12 gneE13 gneE25"/>
    </vehicle>
    <vehicle id="625" depart="625.00">
        <route edges="-gneE7 -gneE6 gneE5 gneE12"/>
    </vehicle>
    <vehicle id="629" depart="629.00">
        <route edges="-gneE34 gneE4 gneE5 gneE12"/>
    </vehicle>
    <vehicle id="630" depart="630.00">
        <route edges="-gneE25 -gneE13"/>
    </vehicle>
    <vehicle id="631" depart="631.00">
        <route edges="-gneE23 -gneE7 -gneE6 gneE5"/>
    </vehicle>
    <vehicle id="632" depart="632.00">
        <route edges="-gneE34 gneE4 gneE6 gneE7 gneE23 gneE31 gneE32"/>
    </vehicle>
    <vehicle id="634" depart="634.00">
        <route edges="-gneE32 -gneE31 -gneE23 -gneE7"/>
    </vehicle>
    <vehicle id="636" depart="636.00">
        <route edges="-gneE27 -gneE25 -gneE13 -gneE12 -gneE5"/>
    </vehicle>
    <vehicle id="637" depart="637.00">
        <route edges="-gneE33 -gneE32 -gneE31 -gneE23 -gneE7 -gneE6"/>
    </vehicle>
    <vehicle id="638" depart="638.00">
        <route edges="-gneE34 gneE4 gneE5 gneE12 gneE13 gneE25"/>
    </vehicle>
    <vehicle id="640" depart="640.00">
        <route edges="-gneE13 -gneE12 -gneE5 -gneE2"/>
    </vehicle>
    <vehicle id="644" depart="644.00">
        <route edges="-gneE34 gneE4 gneE5 gneE12 gneE13 gneE25"/>
    </vehicle>
    <vehicle id="645" depart="645.00">
        <route edges="-gneE25 -gneE13 -gneE12 -gneE5"/>
    </vehicle>
    <vehicle id="646" depart="646.00">
        <route edges="gneE7 gneE23 gneE31 gneE32"/>
    </vehicle>
    <vehicle id="657" depart="657.00">
        <route edges="-gneE31 -gneE23"/>
    </vehicle>
    <vehicle id="658" depart="658.00">
        <route edges="-gneE23 -gneE7 -gneE6 -gneE4 gneE34 gneE36"/>
    </vehicle>
    <vehicle id="659" depart="659.00">
        <route edges="-gneE23 -gneE7 -gneE6 -gneE4 gneE34"/>
    </vehicle>
    <vehicle id="661" depart="661.00">
        <route edges="-gneE12 -gneE5 -gneE4"/>
    </vehicle>
    <vehicle id="664" depart="664.00">
        <route edges="gneE34"/>
    </vehicle>
    <vehicle id="670" depart="670.00">
        <route edges="-gneE7 -gneE6 -gneE4"/>
    </vehicle>
    <vehicle id="673" depart="673.00">
        <route edges="gneE6 gneE7"/>
    </vehicle>
    <vehicle id="675" depart="675.00">
        <route edges="-gneE36 -gneE34 gneE4 gneE5 gneE12 gneE13"/>
    </vehicle>
    <vehicle id="678" depart="678.00">
        <route edges="-gneE32 -gneE31 -gneE23 -gneE7 -gneE6 gneE5 gneE12 gneE13 gneE25 gneE27"/>
    </vehicle>
    <vehicle id="679" depart="679.00">
        <route edges="gneE4 gneE6 gneE7 gneE23"/>
    </vehicle>
    <vehicle id="680" depart="680.00">
        <route edges="-gneE23 -gneE7 -gneE6 -gneE4 gneE34 gneE36"/>
    </vehicle>
    <vehicle id="684" depart="684.00">
        <route edges="-gneE5 gneE6"/>
    </vehicle>
    <vehicle id="685" depart="685.00">
        <route edges="-gneE31 -gneE23 -gneE7"/>
    </vehicle>
    <vehicle id="691" depart="691.00">
        <route edges="gneE2 -gneE4 gneE34"/>
    </vehicle>
    <vehicle id="694" depart="694.00">
        <route edges="-gneE25 -gneE13 -gneE12 -gneE5 gneE6 gneE7 gneE23 gneE31 gneE32"/>
    </vehicle>
    <vehicle id="701" depart="701.00">
        <route edges="-gneE4 gneE34"/>
    </vehicle>
    <vehicle id="702" depart="702.00">
        <route edges="-gneE5 -gneE2"/>
    </vehicle>
    <vehicle id="703" depart="703.00">
        <route edges="gneE5 gneE12 gneE13 gneE25"/>
    </vehicle>
    <vehicle id="705" depart="705.00">
        <route edges="-gneE32 -gneE31 -gneE23"/>
    </vehicle>
    <vehicle id="707" depart="707.00">
        <route edges="-gneE32 -gneE31 -gneE23 -gneE7 -gneE6"/>
    </vehicle>
    <vehicle id="710" depart="710.00">
        <route edges="-gneE7 -gneE6 gneE5 gneE12 gneE13"/>
    </vehicle>
    <vehicle id="711" depart="711.00">
        <route edges="gneE7 gneE23"/>
    </vehicle>
    <vehicle id="713" depart="713.00">
        <route edges="gneE2 gneE6 gneE7"/>
    </vehicle>
    <vehicle id="717" depart="717.00">
        <route edges="gneE32 gneE33"/>
    </vehicle>
    <vehicle id="720" depart="720.00">
        <route edges="-gneE27 -gneE25 -gneE13 -gneE12 -gneE5 -gneE4 gneE34"/>
    </vehicle>
    <vehicle id="722" depart="722.00">
        <route edges="gneE2 -gneE4 gneE34 gneE36"/>
    </vehicle>
    <vehicle id="723" depart="723.00">
        <route edges="-gneE13 -gneE12 -gneE5 -gneE4 gneE34"/>
    </vehicle>
    <vehicle id="726" depart="726.00">
        <route edges="-gneE13 -gneE12 -gneE5 gneE6"/>
    </vehicle>
    <vehicle id="732" depart="732.00">
        <route edges="-gneE25 -gneE13 -gneE12 -gneE5"/>
    </vehicle>
    <vehicle id="737" depart="737.00">
        <route edges="-gneE7 -gneE6 -gneE4 gneE34"/>
    </vehicle>
    <vehicle id="742" depart="742.00">
        <route edges="-gneE33 -gneE32 -gneE31 -gneE23 -gneE7 -gneE6 gneE5 gneE12 gneE13 gneE25"/>
    </vehicle>
    <vehicle id="743" depart="743.00">
        <route edges="-gneE5 gneE6 gneE7 gneE23 gneE31"/>
    </vehicle>
    <vehicle id="753" depart="753.00">
        <route edges="-gneE13 -gneE12 -gneE5 -gneE4 gneE34"/>
    </vehicle>
    <vehicle id="755" depart="755.00">
        <route edges="gneE12 gneE13 gneE25"/>
    </vehicle>
    <vehicle id="757" depart="757.00">
        <route edges="-gneE36 -gneE34 gneE4 gneE6 gneE7 gneE23 gneE31 gneE32 gneE33"/>
    </vehicle>
    <vehicle id="758" depart="758.00">